data/33Bus-Modified/OpenDSS_Model/Loads.txt
!LOAD DEFINITIONS FOR 33 BUS RADIAL DISTRIBUTION SYSTEM
New Load.1 Bus1=1 Phases=3 Model=1 kV=12.66 kW=0 kvar=0 Vmaxpu=1.1 Vminpu=0.9
New Load.2 Bus1=2 Phases=3 Model=1 kV=12.66 kW=0 kvar=0 Vmaxpu=1.1 Vminpu=0.9
New Load.3 Bus1=3 Phases=3 Model=1 kV=12.66 kW=0 kvar=0 Vmaxpu=1.1 Vminpu=0.9
New Load.4 Bus1=4 Phases=3 Model=1 kV=12.66 kW=0 kvar=0 Vmaxpu=1.1 Vminpu=0.9
New Load.5 Bus1=5 Phases=3 Model=1 kV=12.66 kW=0 kvar=0 Vmaxpu=1.1 Vminpu=0.9
New Load.6 Bus1=6 Phases=3 Model=1 kV=12.66 kW=0 kvar=0 Vmaxpu=1.1 Vminpu=0.9
New Load.7 Bus1=7 Phases=3 Model=1 kV=12.66 kW=0 kvar=0 Vmaxpu=1.1 Vminpu=0.9
New Load.8 Bus1=8 Phases=3 Model=1 kV=12.66 kW=0 kvar=0 Vmaxpu=1.1 Vminpu=0.9
New Load.9 Bus1=9 Phases=3 Model=1 kV=12.66 kW=0 kvar=0 Vmaxpu=1.1 Vminpu=0.9
New Load.10 Bus1=10 Phases=3 Model=1 kV=12.66 kW=0 kvar=0 Vmaxpu=1.1 Vminpu=0.9
New Load.11 Bus1=11 Phases=3 Model=1 kV=12.66 kW=0 kvar=0 Vmaxpu=1.1 Vminpu=0.9
New Load.12 Bus1=12 Phases=3 Model=1 kV=12.66 kW=0 kvar=0 Vmaxpu=1.1 Vminpu=0.9
New Load.13 Bus1=13 Phases=3 Model=1 kV=12.66 kW=0 kvar=0 Vmaxpu=1.1 Vminpu=0.9
New Load.14 Bus1=14 Phases=3 Model=1 kV=12.66 kW=0 kvar=0 Vmaxpu=1.1 Vminpu=0.9
New Load.15 Bus1=15 Phases=3 Model=1 kV=12.66 kW=0 kvar=0 Vmaxpu=1.1 Vminpu=0.9
New Load.16 Bus1=16 Phases=3 Model=1 kV=12.66 kW=0 kvar=0 Vmaxpu=1.1 Vminpu=0.9
New Load.17 Bus1=17 Phases=3 Model=1 kV=12.66 kW=0 kvar=0 Vmaxpu=1.1 Vminpu=0.9
New Load.18 Bus1=18 Phases=3 Model=1 kV=12.66 kW=0 kvar=0 Vmaxpu=1.1 Vminpu=0.9
New Load.19 Bus1=19 Phases=3 Model=1 kV=12.66 kW=0 kvar=0 Vmaxpu=1.1 Vminpu=0.9
New Load.20 Bus1=20 Phases=3 Model=1 kV=12.66 kW=0 kvar=0 Vmaxpu=1.1 Vminpu=0.9
New Load.21 Bus1=21 Phases=3 Model=1 kV=12.66 kW=0 kvar=0 Vmaxpu=1.1 Vminpu=0.9
New Load.22 Bus1=22 Phases=3 Model=1 kV=12.66 kW=0 kvar=0 Vmaxpu=1.1 Vminpu=0.9
New Load.23 Bus1=23 Phases=3 Model=1 kV=12.66 kW=0 kvar=0 Vmaxpu=1.1 Vminpu=0.9
New Load.24 Bus1=24 Phases=3 Model=1 kV=12.66 kW=0 kvar=0 Vmaxpu=1.1 Vminpu=0.9
New Load.25 Bus1=25 Phases=3 Model=1 kV=12.66 kW=0 kvar=0 Vmaxpu=1.1 Vminpu=0.9
New Load.26 Bus1=26 Phases=3 Model=1 kV=12.66 kW=0 kvar=0 Vmaxpu=1.1 Vminpu=0.9
New Load.27 Bus1=27 Phases=3 Model=1 kV=12.66 kW=0 kvar=0 Vmaxpu=1.1 Vminpu=0.9
New Load.28 Bus1=28 Phases=3 Model=1 kV=12.66 kW=0 kvar=0 Vmaxpu=1.1 Vminpu=0.9
New Load.29 Bus1=29 Phases=3 Model=1 kV=12.66 kW=0 kvar=0 Vmaxpu=1.1 Vminpu=0.9
New Load.30 Bus1=30 Phases=3 Model=1 kV=12.66 kW=0 kvar=0 Vmaxpu=1.1 Vminpu=0.9
New Load.31 Bus1=31 Phases=3 Model=1 kV=12.66 kW=0 kvar=0 Vmaxpu=1.1 Vminpu=0.9
New Load.32 Bus1=32 Phases=3 Model=1 kV=12.66 kW=0 kvar=0 Vmaxpu=1.1 Vminpu=0.9
New Load.33 Bus1=33 Phases=3 Model=1 kV=12.66 kW=0 kvar=0 Vmaxpu=1.1 Vminpu=0.9